output/1_QUEB_1/Cargas_BT_DO01_1_QUEB_1.dss
New "Load.BT_233150_M1" bus1="UC233150.1.2.3.4" phases=3 conn=delta model=2 kv=0.38 kw = 1.558101305972283 pf=0.92 status=variable vmaxpu=1.5 vminpu=0.93 daily="RU8_DO" 
New "Load.BT_233150_M2" bus1="UC233150.1.2.3.4" phases=3 conn=delta model=3 kv=0.38 kw = 1.558101305972283 pf=0.92 status=variable vmaxpu=1.5 vminpu=0.93 daily="RU8_DO"
 
New "Load.BT_233144_M1" bus1="UC233144.1.2.4" phases=2 conn=delta model=2 kv=0.38 kw = 0.38800168933895557 pf=0.92 status=variable vmaxpu=1.5 vminpu=0.93 daily="RU5_DO" 
New "Load.BT_233144_M2" bus1="UC233144.1.2.4" phases=2 conn=delta model=3 kv=0.38 kw = 0.38800168933895557 pf=0.92 status=variable vmaxpu=1.5 vminpu=0.93 daily="RU5_DO"
 
New "Load.BT_232530_M1" bus1="UC232530.1.2.4" phases=2 conn=delta model=2 kv=0.38 kw = 0.3925181807818408 pf=0.92 status=variable vmaxpu=1.5 vminpu=0.93 daily="RU3_DO" 
New "Load.BT_232530_M2" bus1="UC232530.1.2.4" phases=2 conn=delta model=3 kv=0.38 kw = 0.3925181807818408 pf=0.92 status=variable vmaxpu=1.5 vminpu=0.93 daily="RU3_DO"
 
New "Load.BT_231938_M1" bus1="UC231938.1.4" phases=1 conn=delta model=2 kv=0.22 kw = 0.2879162351514529 pf=0.92 status=variable vmaxpu=1.5 vminpu=0.93 daily="RU6_DO" 
New "Load.BT_231938_M2" bus1="UC231938.1.4" phases=1 conn=delta model=3 kv=0.22 kw = 0.2879162351514529 pf=0.92 status=variable vmaxpu=1.5 vminpu=0.93 daily="RU6_DO"
 
New "Load.BT_2831932_M1" bus1="UC2831932.1.4" phases=1 conn=delta model=2 kv=0.22 kw = 0.29085243575951725 pf=0.92 status=variable vmaxpu=1.5 vminpu=0.93 daily="RU3_DO" 
New "Load.BT_2831932_M2" bus1="UC2831932.1.4" phases=1 conn=delta model=3 kv=0.22 kw = 0.29085243575951725 pf=0.92 status=variable vmaxpu=1.5 vminpu=0.93 daily="RU3_DO"
 
New "Load.BT_231933_M1" bus1="UC231933.1.2.4" phases=2 conn=delta model=2 kv=0.44 kw = 1.3522538660788934 pf=0.92 status=variable vmaxpu=1.5 vminpu=0.93 daily="RU5_DO" 
New "Load.BT_231933_M2" bus1="UC231933.1.2.4" phases=2 conn=delta model=3 kv=0.44 kw = 1.3522538660788934 pf=0.92 status=variable vmaxpu=1.5 vminpu=0.93 daily="RU5_DO"
 
New "Load.BT_2831495_M1" bus1="UC2831495.1.4" phases=1 conn=delta model=2 kv=0.22 kw = 0.22896893878940716 pf=0.92 status=variable vmaxpu=1.5 vminpu=0.93 daily="RU3_DO" 
New "Load.BT_2831495_M2" bus1="UC2831495.1.4" phases=1 conn=delta model=3 kv=0.22 kw = 0.22896893878940716 pf=0.92 status=variable vmaxpu=1.5 vminpu=0.93 daily="RU3_DO"
 
New "Load.BT_2831490_M1" bus1="UC2831490.1.4" phases=1 conn=delta model=2 kv=0.22 kw = 0.013410941244229238 pf=0.92 status=variable vmaxpu=1.5 vminpu=0.93 daily="RU1_DO" 
New "Load.BT_2831490_M2" bus1="UC2831490.1.4" phases=1 conn=delta model=3 kv=0.22 kw = 0.013410941244229238 pf=0.92 status=variable vmaxpu=1.5 vminpu=0.93 daily="RU1_DO"
 
New "Load.BT_231251_M1" bus1="UC231251.3.4" phases=1 conn=delta model=2 kv=0.22 kw = 0.0 pf=0.92 status=variable vmaxpu=1.5 vminpu=0.93 daily="CO3_DO" 
New "Load.BT_231251_M2" bus1="UC231251.3.4" phases=1 conn=delta model=3 kv=0.22 kw = 0.0 pf=0.92 status=variable vmaxpu=1.5 vminpu=0.93 daily="CO3_DO"
 
New "Load.BT_2831192_M1" bus1="UC2831192.1.4" phases=1 conn=delta model=2 kv=0.22 kw = 0.04136334683033374 pf=0.92 status=variable vmaxpu=1.5 vminpu=0.93 daily="RU7_DO" 
New "Load.BT_2831192_M2" bus1="UC2831192.1.4" phases=1 conn=delta model=3 kv=0.22 kw = 0.04136334683033374 pf=0.92 status=variable vmaxpu=1.5 vminpu=0.93 daily="RU7_DO"
 
New "Load.BT_2831188_M1" bus1="UC2831188.1.4" phases=1 conn=delta model=2 kv=0.22 kw = 0.16499144868337048 pf=0.92 status=variable vmaxpu=1.5 vminpu=0.93 daily="PP3_DO" 
New "Load.BT_2831188_M2" bus1="UC2831188.1.4" phases=1 conn=delta model=3 kv=0.22 kw = 0.16499144868337048 pf=0.92 status=variable vmaxpu=1.5 vminpu=0.93 daily="PP3_DO"
 
New "Load.BT_230656_M1" bus1="UC230656.2.4" phases=1 conn=delta model=2 kv=0.22 kw = 0.10020537415598856 pf=0.92 status=variable vmaxpu=1.5 vminpu=0.93 daily="RU2_DO" 
New "Load.BT_230656_M2" bus1="UC230656.2.4" phases=1 conn=delta model=3 kv=0.22 kw = 0.10020537415598856 pf=0.92 status=variable vmaxpu=1.5 vminpu=0.93 daily="RU2_DO"
 
New "Load.BT_2830653_M1" bus1="UC2830653.2.4" phases=1 conn=delta model=2 kv=0.22 kw = 0.10055945675017931 pf=0.92 status=variable vmaxpu=1.5 vminpu=0.93 daily="RU2_DO" 
New "Load.BT_2830653_M2" bus1="UC2830653.2.4" phases=1 conn=delta model=3 kv=0.22 kw = 0.10055945675017931 pf=0.92 status=variable vmaxpu=1.5 vminpu=0.93 daily="RU2_DO"
 
New "Load.BT_230651_M1" bus1="UC230651.1.4" phases=1 conn=delta model=2 kv=0.22 kw = 0.3836464830953207 pf=0.92 status=variable vmaxpu=1.5 vminpu=0.93 daily="RU4_DO" 
New "Load.BT_230651_M2" bus1="UC230651.1.4" phases=1 conn=delta model=3 kv=0.22 kw = 0.3836464830953207 pf=0.92 status=variable vmaxpu=1.5 vminpu=0.93 daily="RU4_DO"
 
New "Load.BT_230555_M1" bus1="UC230555.1.4" phases=1 conn=delta model=2 kv=0.22 kw = 0.02203713479920902 pf=0.92 status=variable vmaxpu=1.5 vminpu=0.93 daily="RU4_DO" 
New "Load.BT_230555_M2" bus1="UC230555.1.4" phases=1 conn=delta model=3 kv=0.22 kw = 0.02203713479920902 pf=0.92 status=variable vmaxpu=1.5 vminpu=0.93 daily="RU4_DO"
 
New "Load.BT_228394_M1" bus1="UC228394.1.4" phases=1 conn=delta model=2 kv=0.22 kw = 0.4591179019401657 pf=0.92 status=variable vmaxpu=1.5 vminpu=0.93 daily="RU5_DO" 
New "Load.BT_228394_M2" bus1="UC228394.1.4" phases=1 conn=delta model=3 kv=0.22 kw = 0.4591179019401657 pf=0.92 status=variable vmaxpu=1.5 vminpu=0.93 daily="RU5_DO"
 
New "Load.BT_228388_M1" bus1="UC228388.1.4" phases=1 conn=delta model=2 kv=0.22 kw = 0.151482351050724 pf=0.92 status=variable vmaxpu=1.5 vminpu=0.93 daily="RE1_DO" 
New "Load.BT_228388_M2" bus1="UC228388.1.4" phases=1 conn=delta model=3 kv=0.22 kw = 0.151482351050724 pf=0.92 status=variable vmaxpu=1.5 vminpu=0.93 daily="RE1_DO"
 
New "Load.BT_227082_M1" bus1="UC227082.2.4" phases=1 conn=delta model=2 kv=0.22 kw = 0.0 pf=0.92 status=variable vmaxpu=1.5 vminpu=0.93 daily="RU7_DO" 
New "Load.BT_227082_M2" bus1="UC227082.2.4" phases=1 conn=delta model=3 kv=0.22 kw = 0.0 pf=0.92 status=variable vmaxpu=1.5 vminpu=0.93 daily="RU7_DO"
 
New "Load.BT_2827937_M1" bus1="UC2827937.1.4" phases=1 conn=delta model=2 kv=0.22 kw = 0.13025053895509348 pf=0.92 status=variable vmaxpu=1.5 vminpu=0.93 daily="RU7_DO" 
New "Load.BT_2827937_M2" bus1="UC2827937.1.4" phases=1 conn=delta model=3 kv=0.22 kw = 0.13025053895509348 pf=0.92 status=variable vmaxpu=1.5 vminpu=0.93 daily="RU7_DO"
 
New "Load.BT_228376_M1" bus1="UC228376.1.4" phases=1 conn=delta model=2 kv=0.22 kw = 0.30451313540725194 pf=0.92 status=variable vmaxpu=1.5 vminpu=0.93 daily="RU4_DO" 
New "Load.BT_228376_M2" bus1="UC228376.1.4" phases=1 conn=delta model=3 kv=0.22 kw = 0.30451313540725194 pf=0.92 status=variable vmaxpu=1.5 vminpu=0.93 daily="RU4_DO"
 
New "Load.BT_226217_M1" bus1="UC226217.1.4" phases=1 conn=delta model=2 kv=0.22 kw = 0.09881341002949222 pf=0.92 status=variable vmaxpu=1.5 vminpu=0.93 daily="RU8_DO" 
New "Load.BT_226217_M2" bus1="UC226217.1.4" phases=1 conn=delta model=3 kv=0.22 kw = 0.09881341002949222 pf=0.92 status=variable vmaxpu=1.5 vminpu=0.93 daily="RU8_DO"
 
New "Load.BT_226224_M1" bus1="UC226224.2.4" phases=1 conn=delta model=2 kv=0.22 kw = 0.09187965451478944 pf=0.92 status=variable vmaxpu=1.5 vminpu=0.93 daily="RE6_DO" 
New "Load.BT_226224_M2" bus1="UC226224.2.4" phases=1 conn=delta model=3 kv=0.22 kw = 0.09187965451478944 pf=0.92 status=variable vmaxpu=1.5 vminpu=0.93 daily="RE6_DO"
 
New "Load.BT_226233_M1" bus1="UC226233.1.2.3.4" phases=3 conn=delta model=2 kv=0.38 kw = 0.38494471409899306 pf=0.92 status=variable vmaxpu=1.5 vminpu=0.93 daily="CO4_DO" 
New "Load.BT_226233_M2" bus1="UC226233.1.2.3.4" phases=3 conn=delta model=3 kv=0.38 kw = 0.38494471409899306 pf=0.92 status=variable vmaxpu=1.5 vminpu=0.93 daily="CO4_DO"
 
New "Load.BT_227077_M1" bus1="UC227077.2.4" phases=1 conn=delta model=2 kv=0.22 kw = 0.45763702876113915 pf=0.92 status=variable vmaxpu=1.5 vminpu=0.93 daily="RU7_DO" 
New "Load.BT_227077_M2" bus1="UC227077.2.4" phases=1 conn=delta model=3 kv=0.22 kw = 0.45763702876113915 pf=0.92 status=variable vmaxpu=1.5 vminpu=0.93 daily="RU7_DO"
 
New "Load.BT_227073_M1" bus1="UC227073.2.4" phases=1 conn=delta model=2 kv=0.22 kw = 0.017680999134317154 pf=0.92 status=variable vmaxpu=1.5 vminpu=0.93 daily="RU3_DO" 
New "Load.BT_227073_M2" bus1="UC227073.2.4" phases=1 conn=delta model=3 kv=0.22 kw = 0.017680999134317154 pf=0.92 status=variable vmaxpu=1.5 vminpu=0.93 daily="RU3_DO"
 
New "Load.BT_2805756_M1" bus1="UC2805756.1.2.3.4" phases=3 conn=delta model=2 kv=0.38 kw = 0.2899936446422425 pf=0.92 status=variable vmaxpu=1.5 vminpu=0.93 daily="RU2_DO" 
New "Load.BT_2805756_M2" bus1="UC2805756.1.2.3.4" phases=3 conn=delta model=3 kv=0.38 kw = 0.2899936446422425 pf=0.92 status=variable vmaxpu=1.5 vminpu=0.93 daily="RU2_DO"
 
New "Load.BT_2805757_M1" bus1="UC2805757.1.2.3.4" phases=3 conn=delta model=2 kv=0.38 kw = 0.3038028658156826 pf=0.92 status=variable vmaxpu=1.5 vminpu=0.93 daily="RU2_DO" 
New "Load.BT_2805757_M2" bus1="UC2805757.1.2.3.4" phases=3 conn=delta model=3 kv=0.38 kw = 0.3038028658156826 pf=0.92 status=variable vmaxpu=1.5 vminpu=0.93 daily="RU2_DO"
 
New "Load.BT_2819390_M1" bus1="UC2819390.1.4" phases=1 conn=delta model=2 kv=0.22 kw = 0.7919393586421624 pf=0.92 status=variable vmaxpu=1.5 vminpu=0.93 daily="RU8_DO" 
New "Load.BT_2819390_M2" bus1="UC2819390.1.4" phases=1 conn=delta model=3 kv=0.22 kw = 0.7919393586421624 pf=0.92 status=variable vmaxpu=1.5 vminpu=0.93 daily="RU8_DO"
 
New "Load.BT_2819375_M1" bus1="UC2819375.1.4" phases=1 conn=delta model=2 kv=0.22 kw = 0.0035408259419077224 pf=0.92 status=variable vmaxpu=1.5 vminpu=0.93 daily="RU2_DO" 
New "Load.BT_2819375_M2" bus1="UC2819375.1.4" phases=1 conn=delta model=3 kv=0.22 kw = 0.0035408259419077224 pf=0.92 status=variable vmaxpu=1.5 vminpu=0.93 daily="RU2_DO"
 
New "Load.BT_2819355_M1" bus1="UC2819355.1.4" phases=1 conn=delta model=2 kv=0.22 kw = 0.007592144423385974 pf=0.92 status=variable vmaxpu=1.5 vminpu=0.93 daily="RU1_DO" 
New "Load.BT_2819355_M2" bus1="UC2819355.1.4" phases=1 conn=delta model=3 kv=0.22 kw = 0.007592144423385974 pf=0.92 status=variable vmaxpu=1.5 vminpu=0.93 daily="RU1_DO"
 
New "Load.BT_2822268_M1" bus1="UC2822268.2.4" phases=1 conn=delta model=2 kv=0.22 kw = 0.23293223191072412 pf=0.92 status=variable vmaxpu=1.5 vminpu=0.93 daily="RU6_DO" 
New "Load.BT_2822268_M2" bus1="UC2822268.2.4" phases=1 conn=delta model=3 kv=0.22 kw = 0.23293223191072412 pf=0.92 status=variable vmaxpu=1.5 vminpu=0.93 daily="RU6_DO"
 
New "Load.BT_2806028_M1" bus1="UC2806028.2.4" phases=1 conn=delta model=2 kv=0.22 kw = 0.26792205215482434 pf=0.92 status=variable vmaxpu=1.5 vminpu=0.93 daily="RU6_DO" 
New "Load.BT_2806028_M2" bus1="UC2806028.2.4" phases=1 conn=delta model=3 kv=0.22 kw = 0.26792205215482434 pf=0.92 status=variable vmaxpu=1.5 vminpu=0.93 daily="RU6_DO"
 
New "Load.BT_2806039_M1" bus1="UC2806039.1.2.3.4" phases=3 conn=delta model=2 kv=0.38 kw = 1.139692215857068 pf=0.92 status=variable vmaxpu=1.5 vminpu=0.93 daily="RU7_DO" 
New "Load.BT_2806039_M2" bus1="UC2806039.1.2.3.4" phases=3 conn=delta model=3 kv=0.38 kw = 1.139692215857068 pf=0.92 status=variable vmaxpu=1.5 vminpu=0.93 daily="RU7_DO"
 
New "Load.BT_2805793_M1" bus1="UC2805793.2.4" phases=1 conn=delta model=2 kv=0.22 kw = 0.1843105819570209 pf=0.92 status=variable vmaxpu=1.5 vminpu=0.93 daily="RU4_DO" 
New "Load.BT_2805793_M2" bus1="UC2805793.2.4" phases=1 conn=delta model=3 kv=0.22 kw = 0.1843105819570209 pf=0.92 status=variable vmaxpu=1.5 vminpu=0.93 daily="RU4_DO"
 
New "Load.BT_2805784_M1" bus1="UC2805784.1.4" phases=1 conn=delta model=2 kv=0.22 kw = 0.21439446445953067 pf=0.92 status=variable vmaxpu=1.5 vminpu=0.93 daily="RU5_DO" 
New "Load.BT_2805784_M2" bus1="UC2805784.1.4" phases=1 conn=delta model=3 kv=0.22 kw = 0.21439446445953067 pf=0.92 status=variable vmaxpu=1.5 vminpu=0.93 daily="RU5_DO"
 
New "Load.BT_2805785_M1" bus1="UC2805785.1.4" phases=1 conn=delta model=2 kv=0.22 kw = 0.02443169899916329 pf=0.92 status=variable vmaxpu=1.5 vminpu=0.93 daily="RU2_DO" 
New "Load.BT_2805785_M2" bus1="UC2805785.1.4" phases=1 conn=delta model=3 kv=0.22 kw = 0.02443169899916329 pf=0.92 status=variable vmaxpu=1.5 vminpu=0.93 daily="RU2_DO"
 
New "Load.BT_2805790_M1" bus1="UC2805790.2.4" phases=1 conn=delta model=2 kv=0.22 kw = 0.13804911857881977 pf=0.92 status=variable vmaxpu=1.5 vminpu=0.93 daily="RU5_DO" 
New "Load.BT_2805790_M2" bus1="UC2805790.2.4" phases=1 conn=delta model=3 kv=0.22 kw = 0.13804911857881977 pf=0.92 status=variable vmaxpu=1.5 vminpu=0.93 daily="RU5_DO"
 
New "Load.BT_2805782_M1" bus1="UC2805782.2.4" phases=1 conn=delta model=2 kv=0.22 kw = 0.09594925321704316 pf=0.92 status=variable vmaxpu=1.5 vminpu=0.93 daily="RU8_DO" 
New "Load.BT_2805782_M2" bus1="UC2805782.2.4" phases=1 conn=delta model=3 kv=0.22 kw = 0.09594925321704316 pf=0.92 status=variable vmaxpu=1.5 vminpu=0.93 daily="RU8_DO"
 
New "Load.BT_2805766_M1" bus1="UC2805766.2.4" phases=1 conn=delta model=2 kv=0.22 kw = 0.21293804891409543 pf=0.92 status=variable vmaxpu=1.5 vminpu=0.93 daily="RU6_DO" 
New "Load.BT_2805766_M2" bus1="UC2805766.2.4" phases=1 conn=delta model=3 kv=0.22 kw = 0.21293804891409543 pf=0.92 status=variable vmaxpu=1.5 vminpu=0.93 daily="RU6_DO"
 
New "Load.BT_2817050_M1" bus1="UC2817050.2.4" phases=1 conn=delta model=2 kv=0.22 kw = 0.13905125104665383 pf=0.92 status=variable vmaxpu=1.5 vminpu=0.93 daily="RU7_DO" 
New "Load.BT_2817050_M2" bus1="UC2817050.2.4" phases=1 conn=delta model=3 kv=0.22 kw = 0.13905125104665383 pf=0.92 status=variable vmaxpu=1.5 vminpu=0.93 daily="RU7_DO"
 
New "Load.BT_2818311_M1" bus1="UC2818311.2.4" phases=1 conn=delta model=2 kv=0.22 kw = 0.055590967287951244 pf=0.92 status=variable vmaxpu=1.5 vminpu=0.93 daily="RU2_DO" 
New "Load.BT_2818311_M2" bus1="UC2818311.2.4" phases=1 conn=delta model=3 kv=0.22 kw = 0.055590967287951244 pf=0.92 status=variable vmaxpu=1.5 vminpu=0.93 daily="RU2_DO"
 
New "Load.BT_2825858_M1" bus1="UC2825858.2.4" phases=1 conn=delta model=2 kv=0.22 kw = 0.21335953237416005 pf=0.92 status=variable vmaxpu=1.5 vminpu=0.93 daily="RU4_DO" 
New "Load.BT_2825858_M2" bus1="UC2825858.2.4" phases=1 conn=delta model=3 kv=0.22 kw = 0.21335953237416005 pf=0.92 status=variable vmaxpu=1.5 vminpu=0.93 daily="RU4_DO"
 
New "Load.BT_2817028_M1" bus1="UC2817028.1.4" phases=1 conn=delta model=2 kv=0.22 kw = 1.980564435808518 pf=0.92 status=variable vmaxpu=1.5 vminpu=0.93 daily="RU8_DO" 
New "Load.BT_2817028_M2" bus1="UC2817028.1.4" phases=1 conn=delta model=3 kv=0.22 kw = 1.980564435808518 pf=0.92 status=variable vmaxpu=1.5 vminpu=0.93 daily="RU8_DO"
 
New "Load.BT_2817013_M1" bus1="UC2817013.1.4" phases=1 conn=delta model=2 kv=0.22 kw = 0.07426019636413206 pf=0.92 status=variable vmaxpu=1.5 vminpu=0.93 daily="RU3_DO" 
New "Load.BT_2817013_M2" bus1="UC2817013.1.4" phases=1 conn=delta model=3 kv=0.22 kw = 0.07426019636413206 pf=0.92 status=variable vmaxpu=1.5 vminpu=0.93 daily="RU3_DO"
 
New "Load.BT_226211_M1" bus1="UC226211.1.4" phases=1 conn=delta model=2 kv=0.22 kw = 0.07506550996844372 pf=0.92 status=variable vmaxpu=1.5 vminpu=0.93 daily="RU2_DO" 
New "Load.BT_226211_M2" bus1="UC226211.1.4" phases=1 conn=delta model=3 kv=0.22 kw = 0.07506550996844372 pf=0.92 status=variable vmaxpu=1.5 vminpu=0.93 daily="RU2_DO"
 
New "Load.BT_205798_M1" bus1="UC205798.1.4" phases=1 conn=delta model=2 kv=0.22 kw = 0.02823731970930404 pf=0.92 status=variable vmaxpu=1.5 vminpu=0.93 daily="RU5_DO" 
New "Load.BT_205798_M2" bus1="UC205798.1.4" phases=1 conn=delta model=3 kv=0.22 kw = 0.02823731970930404 pf=0.92 status=variable vmaxpu=1.5 vminpu=0.93 daily="RU5_DO"
 
New "Load.BT_221678_M1" bus1="UC221678.1.4" phases=1 conn=delta model=2 kv=0.22 kw = 0.07779639619099549 pf=0.92 status=variable vmaxpu=1.5 vminpu=0.93 daily="RU3_DO" 
New "Load.BT_221678_M2" bus1="UC221678.1.4" phases=1 conn=delta model=3 kv=0.22 kw = 0.07779639619099549 pf=0.92 status=variable vmaxpu=1.5 vminpu=0.93 daily="RU3_DO"
 
New "Load.BT_205762_M1" bus1="UC205762.2.4" phases=1 conn=delta model=2 kv=0.22 kw = 0.4162736819308055 pf=0.92 status=variable vmaxpu=1.5 vminpu=0.93 daily="RU7_DO" 
New "Load.BT_205762_M2" bus1="UC205762.2.4" phases=1 conn=delta model=3 kv=0.22 kw = 0.4162736819308055 pf=0.92 status=variable vmaxpu=1.5 vminpu=0.93 daily="RU7_DO"
 
New "Load.BT_205763_M1" bus1="UC205763.1.2.4" phases=2 conn=delta model=2 kv=0.44 kw = 0.47166782181096745 pf=0.92 status=variable vmaxpu=1.5 vminpu=0.93 daily="RU5_DO" 
New "Load.BT_205763_M2" bus1="UC205763.1.2.4" phases=2 conn=delta model=3 kv=0.44 kw = 0.47166782181096745 pf=0.92 status=variable vmaxpu=1.5 vminpu=0.93 daily="RU5_DO"
 
New "Load.BT_205767_M1" bus1="UC205767.1.2.4" phases=2 conn=delta model=2 kv=0.44 kw = 0.07577367515682526 pf=0.92 status=variable vmaxpu=1.5 vminpu=0.93 daily="RU2_DO" 
New "Load.BT_205767_M2" bus1="UC205767.1.2.4" phases=2 conn=delta model=3 kv=0.44 kw = 0.07577367515682526 pf=0.92 status=variable vmaxpu=1.5 vminpu=0.93 daily="RU2_DO"
 
New "Load.BT_221287_M1" bus1="UC221287.1.2.3.4" phases=3 conn=delta model=2 kv=0.38 kw = 0.12215849499581644 pf=0.92 status=variable vmaxpu=1.5 vminpu=0.93 daily="RU2_DO" 
New "Load.BT_221287_M2" bus1="UC221287.1.2.3.4" phases=3 conn=delta model=3 kv=0.38 kw = 0.12215849499581644 pf=0.92 status=variable vmaxpu=1.5 vminpu=0.93 daily="RU2_DO"
 
New "Load.BT_205749_M1" bus1="UC205749.1.2.4" phases=2 conn=delta model=2 kv=0.44 kw = 0.23915709383949565 pf=0.92 status=variable vmaxpu=1.5 vminpu=0.93 daily="RU8_DO" 
New "Load.BT_205749_M2" bus1="UC205749.1.2.4" phases=2 conn=delta model=3 kv=0.44 kw = 0.23915709383949565 pf=0.92 status=variable vmaxpu=1.5 vminpu=0.93 daily="RU8_DO"
 
New "Load.BT_205751_M1" bus1="UC205751.2.4" phases=1 conn=delta model=2 kv=0.22 kw = 0.17729876633909075 pf=0.92 status=variable vmaxpu=1.5 vminpu=0.93 daily="RU4_DO" 
New "Load.BT_205751_M2" bus1="UC205751.2.4" phases=1 conn=delta model=3 kv=0.22 kw = 0.17729876633909075 pf=0.92 status=variable vmaxpu=1.5 vminpu=0.93 daily="RU4_DO"
 
New "Load.BT_205752_M1" bus1="UC205752.1.2.3.4" phases=3 conn=delta model=2 kv=0.38 kw = 0.029149401216795788 pf=0.92 status=variable vmaxpu=1.5 vminpu=0.93 daily="RU1_DO" 
New "Load.BT_205752_M2" bus1="UC205752.1.2.3.4" phases=3 conn=delta model=3 kv=0.38 kw = 0.029149401216795788 pf=0.92 status=variable vmaxpu=1.5 vminpu=0.93 daily="RU1_DO"
 
New "Load.BT_205753_M1" bus1="UC205753.2.4" phases=1 conn=delta model=2 kv=0.22 kw = 0.024378608155053452 pf=0.92 status=variable vmaxpu=1.5 vminpu=0.93 daily="CO6_DO" 
New "Load.BT_205753_M2" bus1="UC205753.2.4" phases=1 conn=delta model=3 kv=0.22 kw = 0.024378608155053452 pf=0.92 status=variable vmaxpu=1.5 vminpu=0.93 daily="CO6_DO"
 
New "Load.BT_205754_M1" bus1="UC205754.1.2.3.4" phases=3 conn=delta model=2 kv=0.38 kw = 0.38093285605572363 pf=0.92 status=variable vmaxpu=1.5 vminpu=0.93 daily="RU8_DO" 
New "Load.BT_205754_M2" bus1="UC205754.1.2.3.4" phases=3 conn=delta model=3 kv=0.38 kw = 0.38093285605572363 pf=0.92 status=variable vmaxpu=1.5 vminpu=0.93 daily="RU8_DO"
 
New "Load.BT_205755_M1" bus1="UC205755.1.4" phases=1 conn=delta model=2 kv=0.22 kw = 0.26609903697147314 pf=0.92 status=variable vmaxpu=1.5 vminpu=0.93 daily="RU3_DO" 
New "Load.BT_205755_M2" bus1="UC205755.1.4" phases=1 conn=delta model=3 kv=0.22 kw = 0.26609903697147314 pf=0.92 status=variable vmaxpu=1.5 vminpu=0.93 daily="RU3_DO"
 
New "Load.BT_205747_M1" bus1="UC205747.1.4" phases=1 conn=delta model=2 kv=0.22 kw = 0.009199240688190304 pf=0.92 status=variable vmaxpu=1.5 vminpu=0.93 daily="RU1_DO" 
New "Load.BT_205747_M2" bus1="UC205747.1.4" phases=1 conn=delta model=3 kv=0.22 kw = 0.009199240688190304 pf=0.92 status=variable vmaxpu=1.5 vminpu=0.93 daily="RU1_DO"
 
New "Load.BT_205746_M1" bus1="UC205746.1.4" phases=1 conn=delta model=2 kv=0.22 kw = 0.057283136248980994 pf=0.92 status=variable vmaxpu=1.5 vminpu=0.93 daily="RU8_DO" 
New "Load.BT_205746_M2" bus1="UC205746.1.4" phases=1 conn=delta model=3 kv=0.22 kw = 0.057283136248980994 pf=0.92 status=variable vmaxpu=1.5 vminpu=0.93 daily="RU8_DO"
 
New "Load.BT_220652_M1" bus1="UC220652.1.4" phases=1 conn=delta model=2 kv=0.22 kw = 0.21021115783593008 pf=0.92 status=variable vmaxpu=1.5 vminpu=0.93 daily="RU5_DO" 
New "Load.BT_220652_M2" bus1="UC220652.1.4" phases=1 conn=delta model=3 kv=0.22 kw = 0.21021115783593008 pf=0.92 status=variable vmaxpu=1.5 vminpu=0.93 daily="RU5_DO"
 
New "Load.BT_221021_M1" bus1="UC221021.1.4" phases=1 conn=delta model=2 kv=0.22 kw = 0.060194041012431275 pf=0.92 status=variable vmaxpu=1.5 vminpu=0.93 daily="RU2_DO" 
New "Load.BT_221021_M2" bus1="UC221021.1.4" phases=1 conn=delta model=3 kv=0.22 kw = 0.060194041012431275 pf=0.92 status=variable vmaxpu=1.5 vminpu=0.93 daily="RU2_DO"
 
New "Load.BT_205739_M1" bus1="UC205739.1.4" phases=1 conn=delta model=2 kv=0.22 kw = 0.5405045305172245 pf=0.92 status=variable vmaxpu=1.5 vminpu=0.93 daily="RE5_DO" 
New "Load.BT_205739_M2" bus1="UC205739.1.4" phases=1 conn=delta model=3 kv=0.22 kw = 0.5405045305172245 pf=0.92 status=variable vmaxpu=1.5 vminpu=0.93 daily="RE5_DO"
 
New "Load.BT_205744_M1" bus1="UC205744.1.2.3.4" phases=3 conn=delta model=2 kv=0.38 kw = 0.36917680953275284 pf=0.92 status=variable vmaxpu=1.5 vminpu=0.93 daily="RU5_DO" 
New "Load.BT_205744_M2" bus1="UC205744.1.2.3.4" phases=3 conn=delta model=3 kv=0.38 kw = 0.36917680953275284 pf=0.92 status=variable vmaxpu=1.5 vminpu=0.93 daily="RU5_DO"
 
New "Load.BT_205745_M1" bus1="UC205745.1.2.3.4" phases=3 conn=delta model=2 kv=0.38 kw = 0.19625587964179625 pf=0.92 status=variable vmaxpu=1.5 vminpu=0.93 daily="RU7_DO" 
New "Load.BT_205745_M2" bus1="UC205745.1.2.3.4" phases=3 conn=delta model=3 kv=0.38 kw = 0.19625587964179625 pf=0.92 status=variable vmaxpu=1.5 vminpu=0.93 daily="RU7_DO"
 
New "Load.BT_205737_M1" bus1="UC205737.2.4" phases=1 conn=delta model=2 kv=0.22 kw = 0.5334947681503902 pf=0.92 status=variable vmaxpu=1.5 vminpu=0.93 daily="RE6_DO" 
New "Load.BT_205737_M2" bus1="UC205737.2.4" phases=1 conn=delta model=3 kv=0.22 kw = 0.5334947681503902 pf=0.92 status=variable vmaxpu=1.5 vminpu=0.93 daily="RE6_DO"
 
New "Load.BT_225866_M1" bus1="UC225866.1.2.3.4" phases=3 conn=delta model=2 kv=0.38 kw = 0.25725853740431454 pf=0.92 status=variable vmaxpu=1.5 vminpu=0.93 daily="RU3_DO" 
New "Load.BT_225866_M2" bus1="UC225866.1.2.3.4" phases=3 conn=delta model=3 kv=0.38 kw = 0.25725853740431454 pf=0.92 status=variable vmaxpu=1.5 vminpu=0.93 daily="RU3_DO"
 
New "Load.BT_228021_M1" bus1="UC228021.2.4" phases=1 conn=delta model=2 kv=0.22 kw = 0.27846924882636853 pf=0.92 status=variable vmaxpu=1.5 vminpu=0.93 daily="RU4_DO" 
New "Load.BT_228021_M2" bus1="UC228021.2.4" phases=1 conn=delta model=3 kv=0.22 kw = 0.27846924882636853 pf=0.92 status=variable vmaxpu=1.5 vminpu=0.93 daily="RU4_DO"
 
New "Load.BT_223629_M1" bus1="UC223629.1.4" phases=1 conn=delta model=2 kv=0.22 kw = 0.0016738381331571712 pf=0.92 status=variable vmaxpu=1.5 vminpu=0.93 daily="RE1_DO" 
New "Load.BT_223629_M2" bus1="UC223629.1.4" phases=1 conn=delta model=3 kv=0.22 kw = 0.0016738381331571712 pf=0.92 status=variable vmaxpu=1.5 vminpu=0.93 daily="RE1_DO"
 
New "Load.BT_217024_M1" bus1="UC217024.1.4" phases=1 conn=delta model=2 kv=0.22 kw = 0.1883352387593919 pf=0.92 status=variable vmaxpu=1.5 vminpu=0.93 daily="RU7_DO" 
New "Load.BT_217024_M2" bus1="UC217024.1.4" phases=1 conn=delta model=3 kv=0.22 kw = 0.1883352387593919 pf=0.92 status=variable vmaxpu=1.5 vminpu=0.93 daily="RU7_DO"
 
New "Load.BT_223627_M1" bus1="UC223627.2.4" phases=1 conn=delta model=2 kv=0.22 kw = 0.11170211568551294 pf=0.92 status=variable vmaxpu=1.5 vminpu=0.93 daily="RU8_DO" 
New "Load.BT_223627_M2" bus1="UC223627.2.4" phases=1 conn=delta model=3 kv=0.22 kw = 0.11170211568551294 pf=0.92 status=variable vmaxpu=1.5 vminpu=0.93 daily="RU8_DO"
 
New "Load.BT_205672_M1" bus1="UC205672.1.4" phases=1 conn=delta model=2 kv=0.22 kw = 0.14495782672555793 pf=0.92 status=variable vmaxpu=1.5 vminpu=0.93 daily="RU6_DO" 
New "Load.BT_205672_M2" bus1="UC205672.1.4" phases=1 conn=delta model=3 kv=0.22 kw = 0.14495782672555793 pf=0.92 status=variable vmaxpu=1.5 vminpu=0.93 daily="RU6_DO"
 
New "Load.BT_205673_M1" bus1="UC205673.2.4" phases=1 conn=delta model=2 kv=0.22 kw = 0.3495890929510885 pf=0.92 status=variable vmaxpu=1.5 vminpu=0.93 daily="RU4_DO" 
New "Load.BT_205673_M2" bus1="UC205673.2.4" phases=1 conn=delta model=3 kv=0.22 kw = 0.3495890929510885 pf=0.92 status=variable vmaxpu=1.5 vminpu=0.93 daily="RU4_DO"
 
New "Load.BT_205666_M1" bus1="UC205666.1.2.3.4" phases=3 conn=delta model=2 kv=0.38 kw = 0.49323705370774573 pf=0.92 status=variable vmaxpu=1.5 vminpu=0.93 daily="RU2_DO" 
New "Load.BT_205666_M2" bus1="UC205666.1.2.3.4" phases=3 conn=delta model=3 kv=0.38 kw = 0.49323705370774573 pf=0.92 status=variable vmaxpu=1.5 vminpu=0.93 daily="RU2_DO"
 
New "Load.BT_205668_M1" bus1="UC205668.1.4" phases=1 conn=delta model=2 kv=0.22 kw = 0.02305351883305522 pf=0.92 status=variable vmaxpu=1.5 vminpu=0.93 daily="RU1_DO" 
New "Load.BT_205668_M2" bus1="UC205668.1.4" phases=1 conn=delta model=3 kv=0.22 kw = 0.02305351883305522 pf=0.92 status=variable vmaxpu=1.5 vminpu=0.93 daily="RU1_DO"
 
New "Load.BT_205669_M1" bus1="UC205669.2.4" phases=1 conn=delta model=2 kv=0.22 kw = 0.0963614452820285 pf=0.92 status=variable vmaxpu=1.5 vminpu=0.93 daily="RU3_DO" 
New "Load.BT_205669_M2" bus1="UC205669.2.4" phases=1 conn=delta model=3 kv=0.22 kw = 0.0963614452820285 pf=0.92 status=variable vmaxpu=1.5 vminpu=0.93 daily="RU3_DO"
 
New "Load.BT_205670_M1" bus1="UC205670.2.4" phases=1 conn=delta model=2 kv=0.22 kw = 0.10517723426895213 pf=0.92 status=variable vmaxpu=1.5 vminpu=0.93 daily="RU4_DO" 
New "Load.BT_205670_M2" bus1="UC205670.2.4" phases=1 conn=delta model=3 kv=0.22 kw = 0.10517723426895213 pf=0.92 status=variable vmaxpu=1.5 vminpu=0.93 daily="RU4_DO"
 
New "Load.BT_205671_M1" bus1="UC205671.2.4" phases=1 conn=delta model=2 kv=0.22 kw = 0.7117429678935888 pf=0.92 status=variable vmaxpu=1.5 vminpu=0.93 daily="RU8_DO" 
New "Load.BT_205671_M2" bus1="UC205671.2.4" phases=1 conn=delta model=3 kv=0.22 kw = 0.7117429678935888 pf=0.92 status=variable vmaxpu=1.5 vminpu=0.93 daily="RU8_DO"
 
New "Load.BT_206078_M1" bus1="UC206078.1.4" phases=1 conn=delta model=2 kv=0.22 kw = 0.006372967946637861 pf=0.92 status=variable vmaxpu=1.5 vminpu=0.93 daily="RU1_DO" 
New "Load.BT_206078_M2" bus1="UC206078.1.4" phases=1 conn=delta model=3 kv=0.22 kw = 0.006372967946637861 pf=0.92 status=variable vmaxpu=1.5 vminpu=0.93 daily="RU1_DO"
 
New "Load.BT_206080_M1" bus1="UC206080.2.4" phases=1 conn=delta model=2 kv=0.22 kw = 0.42872244063915727 pf=0.92 status=variable vmaxpu=1.5 vminpu=0.93 daily="RU4_DO" 
New "Load.BT_206080_M2" bus1="UC206080.2.4" phases=1 conn=delta model=3 kv=0.22 kw = 0.42872244063915727 pf=0.92 status=variable vmaxpu=1.5 vminpu=0.93 daily="RU4_DO"
 
New "Load.BT_205662_M1" bus1="UC205662.1.4" phases=1 conn=delta model=2 kv=0.22 kw = 0.53684381345948 pf=0.92 status=variable vmaxpu=1.5 vminpu=0.93 daily="RU6_DO" 
New "Load.BT_205662_M2" bus1="UC205662.1.4" phases=1 conn=delta model=3 kv=0.22 kw = 0.53684381345948 pf=0.92 status=variable vmaxpu=1.5 vminpu=0.93 daily="RU6_DO"
 
New "Load.BT_205664_M1" bus1="UC205664.1.2.4" phases=2 conn=delta model=2 kv=0.44 kw = 0.1653173419058654 pf=0.92 status=variable vmaxpu=1.5 vminpu=0.93 daily="RU3_DO" 
New "Load.BT_205664_M2" bus1="UC205664.1.2.4" phases=2 conn=delta model=3 kv=0.44 kw = 0.1653173419058654 pf=0.92 status=variable vmaxpu=1.5 vminpu=0.93 daily="RU3_DO"
 
New "Load.BT_205655_M1" bus1="UC205655.1.4" phases=1 conn=delta model=2 kv=0.22 kw = 0.21544029111543084 pf=0.92 status=variable vmaxpu=1.5 vminpu=0.93 daily="RU5_DO" 
New "Load.BT_205655_M2" bus1="UC205655.1.4" phases=1 conn=delta model=3 kv=0.22 kw = 0.21544029111543084 pf=0.92 status=variable vmaxpu=1.5 vminpu=0.93 daily="RU5_DO"
 
New "Load.BT_205658_M1" bus1="UC205658.1.4" phases=1 conn=delta model=2 kv=0.22 kw = 0.2554304260817409 pf=0.92 status=variable vmaxpu=1.5 vminpu=0.93 daily="RU4_DO" 
New "Load.BT_205658_M2" bus1="UC205658.1.4" phases=1 conn=delta model=3 kv=0.22 kw = 0.2554304260817409 pf=0.92 status=variable vmaxpu=1.5 vminpu=0.93 daily="RU4_DO"
 
New "Load.BT_205659_M1" bus1="UC205659.1.2.3.4" phases=3 conn=delta model=2 kv=0.38 kw = 0.2825028581390878 pf=0.92 status=variable vmaxpu=1.5 vminpu=0.93 daily="RU7_DO" 
New "Load.BT_205659_M2" bus1="UC205659.1.2.3.4" phases=3 conn=delta model=3 kv=0.38 kw = 0.2825028581390878 pf=0.92 status=variable vmaxpu=1.5 vminpu=0.93 daily="RU7_DO"
 
New "Load.BT_206061_M1" bus1="UC206061.1.4" phases=1 conn=delta model=2 kv=0.22 kw = 0.06310634056137128 pf=0.92 status=variable vmaxpu=1.5 vminpu=0.93 daily="RU4_DO" 
New "Load.BT_206061_M2" bus1="UC206061.1.4" phases=1 conn=delta model=3 kv=0.22 kw = 0.06310634056137128 pf=0.92 status=variable vmaxpu=1.5 vminpu=0.93 daily="RU4_DO"
 
New "Load.BT_205649_M1" bus1="UC205649.1.2.3.4" phases=3 conn=delta model=2 kv=0.38 kw = 0.23869348831328158 pf=0.92 status=variable vmaxpu=1.5 vminpu=0.93 daily="RU3_DO" 
New "Load.BT_205649_M2" bus1="UC205649.1.2.3.4" phases=3 conn=delta model=3 kv=0.38 kw = 0.23869348831328158 pf=0.92 status=variable vmaxpu=1.5 vminpu=0.93 daily="RU3_DO"
 
New "Load.BT_205650_M1" bus1="UC205650.1.4" phases=1 conn=delta model=2 kv=0.22 kw = 0.14595753587538934 pf=0.92 status=variable vmaxpu=1.5 vminpu=0.93 daily="RU6_DO" 
New "Load.BT_205650_M2" bus1="UC205650.1.4" phases=1 conn=delta model=3 kv=0.22 kw = 0.14595753587538934 pf=0.92 status=variable vmaxpu=1.5 vminpu=0.93 daily="RU6_DO"
 
New "Load.BT_205651_M1" bus1="UC205651.1.2.3.4" phases=3 conn=delta model=2 kv=0.38 kw = 0.46203738480691936 pf=0.92 status=variable vmaxpu=1.5 vminpu=0.93 daily="RU7_DO" 
New "Load.BT_205651_M2" bus1="UC205651.1.2.3.4" phases=3 conn=delta model=3 kv=0.38 kw = 0.46203738480691936 pf=0.92 status=variable vmaxpu=1.5 vminpu=0.93 daily="RU7_DO"
 
New "Load.BT_205653_M1" bus1="UC205653.1.2.3.4" phases=3 conn=delta model=2 kv=0.38 kw = 0.07017184190500171 pf=0.92 status=variable vmaxpu=1.5 vminpu=0.93 daily="RU8_DO" 
New "Load.BT_205653_M2" bus1="UC205653.1.2.3.4" phases=3 conn=delta model=3 kv=0.38 kw = 0.07017184190500171 pf=0.92 status=variable vmaxpu=1.5 vminpu=0.93 daily="RU8_DO"
 
New "Load.BT_205654_M1" bus1="UC205654.1.4" phases=1 conn=delta model=2 kv=0.22 kw = 0.028539812978421727 pf=0.92 status=variable vmaxpu=1.5 vminpu=0.93 daily="RU1_DO" 
New "Load.BT_205654_M2" bus1="UC205654.1.4" phases=1 conn=delta model=3 kv=0.22 kw = 0.028539812978421727 pf=0.92 status=variable vmaxpu=1.5 vminpu=0.93 daily="RU1_DO"
 
New "Load.BT_205648_M1" bus1="UC205648.1.4" phases=1 conn=delta model=2 kv=0.22 kw = 0.25814258736103046 pf=0.92 status=variable vmaxpu=1.5 vminpu=0.93 daily="RU3_DO" 
New "Load.BT_205648_M2" bus1="UC205648.1.4" phases=1 conn=delta model=3 kv=0.22 kw = 0.25814258736103046 pf=0.92 status=variable vmaxpu=1.5 vminpu=0.93 daily="RU3_DO"
 
New "Load.BT_205645_M1" bus1="UC205645.2.4" phases=1 conn=delta model=2 kv=0.22 kw = 0.14893615424735057 pf=0.92 status=variable vmaxpu=1.5 vminpu=0.93 daily="RU8_DO" 
New "Load.BT_205645_M2" bus1="UC205645.2.4" phases=1 conn=delta model=3 kv=0.22 kw = 0.14893615424735057 pf=0.92 status=variable vmaxpu=1.5 vminpu=0.93 daily="RU8_DO"
 
New "Load.BT_222266_M1" bus1="UC222266.2.4" phases=1 conn=delta model=2 kv=0.22 kw = 0.061610371389194375 pf=0.92 status=variable vmaxpu=1.5 vminpu=0.93 daily="RU2_DO" 
New "Load.BT_222266_M2" bus1="UC222266.2.4" phases=1 conn=delta model=3 kv=0.22 kw = 0.061610371389194375 pf=0.92 status=variable vmaxpu=1.5 vminpu=0.93 daily="RU2_DO"
 
New "Load.BT_205731_M1" bus1="UC205731.1.4" phases=1 conn=delta model=2 kv=0.22 kw = 0.006175583648646948 pf=0.92 status=variable vmaxpu=1.5 vminpu=0.93 daily="CO4_DO" 
New "Load.BT_205731_M2" bus1="UC205731.1.4" phases=1 conn=delta model=3 kv=0.22 kw = 0.006175583648646948 pf=0.92 status=variable vmaxpu=1.5 vminpu=0.93 daily="CO4_DO"
 
New "Load.BT_205734_M1" bus1="UC205734.1.2.4" phases=2 conn=delta model=2 kv=0.44 kw = 0.4215541091857417 pf=0.92 status=variable vmaxpu=1.5 vminpu=0.93 daily="RU7_DO" 
New "Load.BT_205734_M2" bus1="UC205734.1.2.4" phases=2 conn=delta model=3 kv=0.44 kw = 0.4215541091857417 pf=0.92 status=variable vmaxpu=1.5 vminpu=0.93 daily="RU7_DO"
 
New "Load.BT_219392_M1" bus1="UC219392.1.4" phases=1 conn=delta model=2 kv=0.22 kw = 0.14895666332488366 pf=0.92 status=variable vmaxpu=1.5 vminpu=0.93 daily="RU6_DO" 
New "Load.BT_219392_M2" bus1="UC219392.1.4" phases=1 conn=delta model=3 kv=0.22 kw = 0.14895666332488366 pf=0.92 status=variable vmaxpu=1.5 vminpu=0.93 daily="RU6_DO"
 
New "Load.BT_219394_M1" bus1="UC219394.1.4" phases=1 conn=delta model=2 kv=0.22 kw = 0.06054812360662206 pf=0.92 status=variable vmaxpu=1.5 vminpu=0.93 daily="RU2_DO" 
New "Load.BT_219394_M2" bus1="UC219394.1.4" phases=1 conn=delta model=3 kv=0.22 kw = 0.06054812360662206 pf=0.92 status=variable vmaxpu=1.5 vminpu=0.93 daily="RU2_DO"
 
New "Load.BT_219377_M1" bus1="UC219377.1.2.4" phases=2 conn=delta model=2 kv=0.44 kw = 1.8797204948086008 pf=0.92 status=variable vmaxpu=1.5 vminpu=0.93 daily="PP7_DO" 
New "Load.BT_219377_M2" bus1="UC219377.1.2.4" phases=2 conn=delta model=3 kv=0.44 kw = 1.8797204948086008 pf=0.92 status=variable vmaxpu=1.5 vminpu=0.93 daily="PP7_DO"
 
New "Load.BT_219381_M1" bus1="UC219381.1.4" phases=1 conn=delta model=2 kv=0.22 kw = 0.10078169506560779 pf=0.92 status=variable vmaxpu=1.5 vminpu=0.93 daily="RU3_DO" 
New "Load.BT_219381_M2" bus1="UC219381.1.4" phases=1 conn=delta model=3 kv=0.22 kw = 0.10078169506560779 pf=0.92 status=variable vmaxpu=1.5 vminpu=0.93 daily="RU3_DO"
 
New "Load.BT_219384_M1" bus1="UC219384.1.4" phases=1 conn=delta model=2 kv=0.22 kw = 0.14763634277154825 pf=0.92 status=variable vmaxpu=1.5 vminpu=0.93 daily="RU3_DO" 
New "Load.BT_219384_M2" bus1="UC219384.1.4" phases=1 conn=delta model=3 kv=0.22 kw = 0.14763634277154825 pf=0.92 status=variable vmaxpu=1.5 vminpu=0.93 daily="RU3_DO"
 
New "Load.BT_225587_M1" bus1="UC225587.1.4" phases=1 conn=delta model=2 kv=0.22 kw = 0.20686768987151072 pf=0.92 status=variable vmaxpu=1.5 vminpu=0.93 daily="RU3_DO" 
New "Load.BT_225587_M2" bus1="UC225587.1.4" phases=1 conn=delta model=3 kv=0.22 kw = 0.20686768987151072 pf=0.92 status=variable vmaxpu=1.5 vminpu=0.93 daily="RU3_DO"
 
New "Load.BT_205729_M1" bus1="UC205729.1.2.4" phases=2 conn=delta model=2 kv=0.44 kw = 0.27192088875415005 pf=0.92 status=variable vmaxpu=1.5 vminpu=0.93 daily="RU6_DO" 
New "Load.BT_205729_M2" bus1="UC205729.1.2.4" phases=2 conn=delta model=3 kv=0.44 kw = 0.27192088875415005 pf=0.92 status=variable vmaxpu=1.5 vminpu=0.93 daily="RU6_DO"
 
New "Load.BT_205730_M1" bus1="UC205730.2.4" phases=1 conn=delta model=2 kv=0.22 kw = 0.41673481621133673 pf=0.92 status=variable vmaxpu=1.5 vminpu=0.93 daily="RU8_DO" 
New "Load.BT_205730_M2" bus1="UC205730.2.4" phases=1 conn=delta model=3 kv=0.22 kw = 0.41673481621133673 pf=0.92 status=variable vmaxpu=1.5 vminpu=0.93 daily="RU8_DO"
 
New "Load.BT_205717_M1" bus1="UC205717.1.2.3.4" phases=3 conn=delta model=2 kv=0.38 kw = 0.1502884926416958 pf=0.92 status=variable vmaxpu=1.5 vminpu=0.93 daily="RU3_DO" 
New "Load.BT_205717_M2" bus1="UC205717.1.2.3.4" phases=3 conn=delta model=3 kv=0.38 kw = 0.1502884926416958 pf=0.92 status=variable vmaxpu=1.5 vminpu=0.93 daily="RU3_DO"
 
New "Load.BT_205719_M1" bus1="UC205719.2.4" phases=1 conn=delta model=2 kv=0.22 kw = 0.20154246796792522 pf=0.92 status=variable vmaxpu=1.5 vminpu=0.93 daily="RE6_DO" 
New "Load.BT_205719_M2" bus1="UC205719.2.4" phases=1 conn=delta model=3 kv=0.22 kw = 0.20154246796792522 pf=0.92 status=variable vmaxpu=1.5 vminpu=0.93 daily="RE6_DO"
 
New "Load.BT_205722_M1" bus1="UC205722.1.2.3.4" phases=3 conn=delta model=2 kv=0.38 kw = 0.21570818943866932 pf=0.92 status=variable vmaxpu=1.5 vminpu=0.93 daily="RU3_DO" 
New "Load.BT_205722_M2" bus1="UC205722.1.2.3.4" phases=3 conn=delta model=3 kv=0.38 kw = 0.21570818943866932 pf=0.92 status=variable vmaxpu=1.5 vminpu=0.93 daily="RU3_DO"
 
New "Load.BT_205727_M1" bus1="UC205727.1.4" phases=1 conn=delta model=2 kv=0.22 kw = 0.13072833198751868 pf=0.92 status=variable vmaxpu=1.5 vminpu=0.93 daily="RU5_DO" 
New "Load.BT_205727_M2" bus1="UC205727.1.4" phases=1 conn=delta model=3 kv=0.22 kw = 0.13072833198751868 pf=0.92 status=variable vmaxpu=1.5 vminpu=0.93 daily="RU5_DO"
 
New "Load.BT_205710_M1" bus1="UC205710.1.2.3.4" phases=3 conn=delta model=2 kv=0.38 kw = 0.3191420343744246 pf=0.92 status=variable vmaxpu=1.5 vminpu=0.93 daily="RU3_DO" 
New "Load.BT_205710_M2" bus1="UC205710.1.2.3.4" phases=3 conn=delta model=3 kv=0.38 kw = 0.3191420343744246 pf=0.92 status=variable vmaxpu=1.5 vminpu=0.93 daily="RU3_DO"
 
New "Load.BT_205711_M1" bus1="UC205711.2.4" phases=1 conn=delta model=2 kv=0.22 kw = 0.17988218481482576 pf=0.92 status=variable vmaxpu=1.5 vminpu=0.93 daily="RU5_DO" 
New "Load.BT_205711_M2" bus1="UC205711.2.4" phases=1 conn=delta model=3 kv=0.22 kw = 0.17988218481482576 pf=0.92 status=variable vmaxpu=1.5 vminpu=0.93 daily="RU5_DO"
 
New "Load.BT_205713_M1" bus1="UC205713.2.4" phases=1 conn=delta model=2 kv=0.22 kw = 0.39517033065198837 pf=0.92 status=variable vmaxpu=1.5 vminpu=0.93 daily="RU3_DO" 
New "Load.BT_205713_M2" bus1="UC205713.2.4" phases=1 conn=delta model=3 kv=0.22 kw = 0.39517033065198837 pf=0.92 status=variable vmaxpu=1.5 vminpu=0.93 daily="RU3_DO"
 
New "Load.BT_219351_M1" bus1="UC219351.2.4" phases=1 conn=delta model=2 kv=0.22 kw = 0.19009538117770394 pf=0.92 status=variable vmaxpu=1.5 vminpu=0.93 daily="RU7_DO" 
New "Load.BT_219351_M2" bus1="UC219351.2.4" phases=1 conn=delta model=3 kv=0.22 kw = 0.19009538117770394 pf=0.92 status=variable vmaxpu=1.5 vminpu=0.93 daily="RU7_DO"
 
New "Load.BT_219353_M1" bus1="UC219353.2.4" phases=1 conn=delta model=2 kv=0.22 kw = 0.011194256741050854 pf=0.92 status=variable vmaxpu=1.5 vminpu=0.93 daily="RU1_DO" 
New "Load.BT_219353_M2" bus1="UC219353.2.4" phases=1 conn=delta model=3 kv=0.22 kw = 0.011194256741050854 pf=0.92 status=variable vmaxpu=1.5 vminpu=0.93 daily="RU1_DO"
 
New "Load.BT_219354_M1" bus1="UC219354.1.4" phases=1 conn=delta model=2 kv=0.22 kw = 0.13795986267673788 pf=0.92 status=variable vmaxpu=1.5 vminpu=0.93 daily="RU6_DO" 
New "Load.BT_219354_M2" bus1="UC219354.1.4" phases=1 conn=delta model=3 kv=0.22 kw = 0.13795986267673788 pf=0.92 status=variable vmaxpu=1.5 vminpu=0.93 daily="RU6_DO"
 
New "Load.BT_219361_M1" bus1="UC219361.1.2.3.4" phases=3 conn=delta model=2 kv=0.38 kw = 0.14419532693175408 pf=0.92 status=variable vmaxpu=1.5 vminpu=0.93 daily="RU1_DO" 
New "Load.BT_219361_M2" bus1="UC219361.1.2.3.4" phases=3 conn=delta model=3 kv=0.38 kw = 0.14419532693175408 pf=0.92 status=variable vmaxpu=1.5 vminpu=0.93 daily="RU1_DO"
 
New "Load.BT_219363_M1" bus1="UC219363.2.4" phases=1 conn=delta model=2 kv=0.22 kw = 0.08471195912791213 pf=0.92 status=variable vmaxpu=1.5 vminpu=0.93 daily="RU5_DO" 
New "Load.BT_219363_M2" bus1="UC219363.2.4" phases=1 conn=delta model=3 kv=0.22 kw = 0.08471195912791213 pf=0.92 status=variable vmaxpu=1.5 vminpu=0.93 daily="RU5_DO"
 
New "Load.BT_205709_M1" bus1="UC205709.1.4" phases=1 conn=delta model=2 kv=0.22 kw = 0.08928904562830163 pf=0.92 status=variable vmaxpu=1.5 vminpu=0.93 daily="RU3_DO" 
New "Load.BT_205709_M2" bus1="UC205709.1.4" phases=1 conn=delta model=3 kv=0.22 kw = 0.08928904562830163 pf=0.92 status=variable vmaxpu=1.5 vminpu=0.93 daily="RU3_DO"
 
New "Load.BT_225590_M1" bus1="UC225590.2.4" phases=1 conn=delta model=2 kv=0.22 kw = 0.0008840499567158577 pf=0.92 status=variable vmaxpu=1.5 vminpu=0.93 daily="RU3_DO" 
New "Load.BT_225590_M2" bus1="UC225590.2.4" phases=1 conn=delta model=3 kv=0.22 kw = 0.0008840499567158577 pf=0.92 status=variable vmaxpu=1.5 vminpu=0.93 daily="RU3_DO"
 
New "Load.BT_225591_M1" bus1="UC225591.1.4" phases=1 conn=delta model=2 kv=0.22 kw = 0.07072399653726862 pf=0.92 status=variable vmaxpu=1.5 vminpu=0.93 daily="RU3_DO" 
New "Load.BT_225591_M2" bus1="UC225591.1.4" phases=1 conn=delta model=3 kv=0.22 kw = 0.07072399653726862 pf=0.92 status=variable vmaxpu=1.5 vminpu=0.93 daily="RU3_DO"
 
New "Load.BT_225591_M1" bus1="UC225591.1.4" phases=1 conn=delta model=2 kv=0.22 kw = 0.15325825564904455 pf=0.92 status=variable vmaxpu=1.5 vminpu=0.93 daily="RU4_DO" 
New "Load.BT_225591_M2" bus1="UC225591.1.4" phases=1 conn=delta model=3 kv=0.22 kw = 0.15325825564904455 pf=0.92 status=variable vmaxpu=1.5 vminpu=0.93 daily="RU4_DO"
 
New "Load.BT_225593_M1" bus1="UC225593.2.4" phases=1 conn=delta model=2 kv=0.22 kw = 0.16733226494402392 pf=0.92 status=variable vmaxpu=1.5 vminpu=0.93 daily="RU5_DO" 
New "Load.BT_225593_M2" bus1="UC225593.2.4" phases=1 conn=delta model=3 kv=0.22 kw = 0.16733226494402392 pf=0.92 status=variable vmaxpu=1.5 vminpu=0.93 daily="RU5_DO"
 
New "Load.BT_205706_M1" bus1="UC205706.1.2.4" phases=2 conn=delta model=2 kv=0.44 kw = 0.48833873652256293 pf=0.92 status=variable vmaxpu=1.5 vminpu=0.93 daily="RU8_DO" 
New "Load.BT_205706_M2" bus1="UC205706.1.2.4" phases=2 conn=delta model=3 kv=0.44 kw = 0.48833873652256293 pf=0.92 status=variable vmaxpu=1.5 vminpu=0.93 daily="RU8_DO"
 
New "Load.BT_205707_M1" bus1="UC205707.1.4" phases=1 conn=delta model=2 kv=0.22 kw = 0.010475647535452095 pf=0.92 status=variable vmaxpu=1.5 vminpu=0.93 daily="CO3_DO" 
New "Load.BT_205707_M2" bus1="UC205707.1.4" phases=1 conn=delta model=3 kv=0.22 kw = 0.010475647535452095 pf=0.92 status=variable vmaxpu=1.5 vminpu=0.93 daily="CO3_DO"
 
New "Load.BT_225285_M1" bus1="UC225285.1.4" phases=1 conn=delta model=2 kv=0.22 kw = 0.05488280209956971 pf=0.92 status=variable vmaxpu=1.5 vminpu=0.93 daily="RU2_DO" 
New "Load.BT_225285_M2" bus1="UC225285.1.4" phases=1 conn=delta model=3 kv=0.22 kw = 0.05488280209956971 pf=0.92 status=variable vmaxpu=1.5 vminpu=0.93 daily="RU2_DO"
 
New "Load.BT_225286_M1" bus1="UC225286.1.4" phases=1 conn=delta model=2 kv=0.22 kw = 0.11880961323606498 pf=0.92 status=variable vmaxpu=1.5 vminpu=0.93 daily="RU7_DO" 
New "Load.BT_225286_M2" bus1="UC225286.1.4" phases=1 conn=delta model=3 kv=0.22 kw = 0.11880961323606498 pf=0.92 status=variable vmaxpu=1.5 vminpu=0.93 daily="RU7_DO"
 
New "Load.BT_225289_M1" bus1="UC225289.1.4" phases=1 conn=delta model=2 kv=0.22 kw = 0.17830045428450933 pf=0.92 status=variable vmaxpu=1.5 vminpu=0.93 daily="RU4_DO" 
New "Load.BT_225289_M2" bus1="UC225289.1.4" phases=1 conn=delta model=3 kv=0.22 kw = 0.17830045428450933 pf=0.92 status=variable vmaxpu=1.5 vminpu=0.93 daily="RU4_DO"
 
New "Load.BT_225290_M1" bus1="UC225290.2.4" phases=1 conn=delta model=2 kv=0.22 kw = 0.14498419290140066 pf=0.92 status=variable vmaxpu=1.5 vminpu=0.93 daily="RU3_DO" 
New "Load.BT_225290_M2" bus1="UC225290.2.4" phases=1 conn=delta model=3 kv=0.22 kw = 0.14498419290140066 pf=0.92 status=variable vmaxpu=1.5 vminpu=0.93 daily="RU3_DO"
 
New "Load.BT_205695_M1" bus1="UC205695.1.4" phases=1 conn=delta model=2 kv=0.22 kw = 0.44680846274205177 pf=0.92 status=variable vmaxpu=1.5 vminpu=0.93 daily="RU8_DO" 
New "Load.BT_205695_M2" bus1="UC205695.1.4" phases=1 conn=delta model=3 kv=0.22 kw = 0.44680846274205177 pf=0.92 status=variable vmaxpu=1.5 vminpu=0.93 daily="RU8_DO"
 
New "Load.BT_205699_M1" bus1="UC205699.1.4" phases=1 conn=delta model=2 kv=0.22 kw = 0.05871521465520552 pf=0.92 status=variable vmaxpu=1.5 vminpu=0.93 daily="RU8_DO" 
New "Load.BT_205699_M2" bus1="UC205699.1.4" phases=1 conn=delta model=3 kv=0.22 kw = 0.05871521465520552 pf=0.92 status=variable vmaxpu=1.5 vminpu=0.93 daily="RU8_DO"
 
New "Load.BT_205700_M1" bus1="UC205700.1.4" phases=1 conn=delta model=2 kv=0.22 kw = 0.3974141292420569 pf=0.92 status=variable vmaxpu=1.5 vminpu=0.93 daily="RU5_DO" 
New "Load.BT_205700_M2" bus1="UC205700.1.4" phases=1 conn=delta model=3 kv=0.22 kw = 0.3974141292420569 pf=0.92 status=variable vmaxpu=1.5 vminpu=0.93 daily="RU5_DO"
 
New "Load.BT_205703_M1" bus1="UC205703.1.4" phases=1 conn=delta model=2 kv=0.22 kw = 0.0 pf=0.92 status=variable vmaxpu=1.5 vminpu=0.93 daily="RU1_DO" 
New "Load.BT_205703_M2" bus1="UC205703.1.4" phases=1 conn=delta model=3 kv=0.22 kw = 0.0 pf=0.92 status=variable vmaxpu=1.5 vminpu=0.93 daily="RU1_DO"
 
New "Load.BT_218342_M1" bus1="UC218342.1.4" phases=1 conn=delta model=2 kv=0.22 kw = 0.19332577346578822 pf=0.92 status=variable vmaxpu=1.5 vminpu=0.93 daily="RU4_DO" 
New "Load.BT_218342_M2" bus1="UC218342.1.4" phases=1 conn=delta model=3 kv=0.22 kw = 0.19332577346578822 pf=0.92 status=variable vmaxpu=1.5 vminpu=0.93 daily="RU4_DO"
 
New "Load.BT_224968_M1" bus1="UC224968.2.4" phases=1 conn=delta model=2 kv=0.22 kw = 0.0013854278144864918 pf=0.92 status=variable vmaxpu=1.5 vminpu=0.93 daily="RU1_DO" 
New "Load.BT_224968_M2" bus1="UC224968.2.4" phases=1 conn=delta model=3 kv=0.22 kw = 0.0013854278144864918 pf=0.92 status=variable vmaxpu=1.5 vminpu=0.93 daily="RU1_DO"
 
New "Load.BT_225281_M1" bus1="UC225281.1.4" phases=1 conn=delta model=2 kv=0.22 kw = 0.16103638371946966 pf=0.92 status=variable vmaxpu=1.5 vminpu=0.93 daily="RE6_DO" 
New "Load.BT_225281_M2" bus1="UC225281.1.4" phases=1 conn=delta model=3 kv=0.22 kw = 0.16103638371946966 pf=0.92 status=variable vmaxpu=1.5 vminpu=0.93 daily="RE6_DO"
 
New "Load.BT_218304_M1" bus1="UC218304.1.2.3.4" phases=3 conn=delta model=2 kv=0.38 kw = 0.15841281764808665 pf=0.92 status=variable vmaxpu=1.5 vminpu=0.93 daily="RU7_DO" 
New "Load.BT_218304_M2" bus1="UC218304.1.2.3.4" phases=3 conn=delta model=3 kv=0.38 kw = 0.15841281764808665 pf=0.92 status=variable vmaxpu=1.5 vminpu=0.93 daily="RU7_DO"
 
New "Load.BT_218305_M1" bus1="UC218305.3.4" phases=1 conn=delta model=2 kv=0.22 kw = 0.017013053561894118 pf=0.92 status=variable vmaxpu=1.5 vminpu=0.93 daily="RU1_DO" 
New "Load.BT_218305_M2" bus1="UC218305.3.4" phases=1 conn=delta model=3 kv=0.22 kw = 0.017013053561894118 pf=0.92 status=variable vmaxpu=1.5 vminpu=0.93 daily="RU1_DO"
 
New "Load.BT_218309_M1" bus1="UC218309.1.4" phases=1 conn=delta model=2 kv=0.22 kw = 0.011083422515891934 pf=0.92 status=variable vmaxpu=1.5 vminpu=0.93 daily="RU1_DO" 
New "Load.BT_218309_M2" bus1="UC218309.1.4" phases=1 conn=delta model=3 kv=0.22 kw = 0.011083422515891934 pf=0.92 status=variable vmaxpu=1.5 vminpu=0.93 daily="RU1_DO"
 
New "Load.BT_218318_M1" bus1="UC218318.1.4" phases=1 conn=delta model=2 kv=0.22 kw = 0.24681509079243533 pf=0.92 status=variable vmaxpu=1.5 vminpu=0.93 daily="RU5_DO" 
New "Load.BT_218318_M2" bus1="UC218318.1.4" phases=1 conn=delta model=3 kv=0.22 kw = 0.24681509079243533 pf=0.92 status=variable vmaxpu=1.5 vminpu=0.93 daily="RU5_DO"
 
New "Load.BT_218320_M1" bus1="UC218320.1.4" phases=1 conn=delta model=2 kv=0.22 kw = 0.03242181415539648 pf=0.92 status=variable vmaxpu=1.5 vminpu=0.93 daily="CO4_DO" 
New "Load.BT_218320_M2" bus1="UC218320.1.4" phases=1 conn=delta model=3 kv=0.22 kw = 0.03242181415539648 pf=0.92 status=variable vmaxpu=1.5 vminpu=0.93 daily="CO4_DO"
 
New "Load.BT_218323_M1" bus1="UC218323.1.4" phases=1 conn=delta model=2 kv=0.22 kw = 0.3005063836255775 pf=0.92 status=variable vmaxpu=1.5 vminpu=0.93 daily="RU4_DO" 
New "Load.BT_218323_M2" bus1="UC218323.1.4" phases=1 conn=delta model=3 kv=0.22 kw = 0.3005063836255775 pf=0.92 status=variable vmaxpu=1.5 vminpu=0.93 daily="RU4_DO"
 
New "Load.BT_223646_M1" bus1="UC223646.1.4" phases=1 conn=delta model=2 kv=0.22 kw = 0.08781248335931152 pf=0.92 status=variable vmaxpu=1.5 vminpu=0.93 daily="RU2_DO" 
New "Load.BT_223646_M2" bus1="UC223646.1.4" phases=1 conn=delta model=3 kv=0.22 kw = 0.08781248335931152 pf=0.92 status=variable vmaxpu=1.5 vminpu=0.93 daily="RU2_DO"
 
New "Load.BT_205687_M1" bus1="UC205687.1.4" phases=1 conn=delta model=2 kv=0.22 kw = 0.13278097282153958 pf=0.92 status=variable vmaxpu=1.5 vminpu=0.93 daily="RU2_DO" 
New "Load.BT_205687_M2" bus1="UC205687.1.4" phases=1 conn=delta model=3 kv=0.22 kw = 0.13278097282153958 pf=0.92 status=variable vmaxpu=1.5 vminpu=0.93 daily="RU2_DO"
 
New "Load.BT_205689_M1" bus1="UC205689.1.4" phases=1 conn=delta model=2 kv=0.22 kw = 0.0 pf=0.92 status=variable vmaxpu=1.5 vminpu=0.93 daily="RU2_DO" 
New "Load.BT_205689_M2" bus1="UC205689.1.4" phases=1 conn=delta model=3 kv=0.22 kw = 0.0 pf=0.92 status=variable vmaxpu=1.5 vminpu=0.93 daily="RU2_DO"
 
New "Load.BT_205691_M1" bus1="UC205691.1.2.4" phases=2 conn=delta model=2 kv=0.44 kw = 0.10097062413297483 pf=0.92 status=variable vmaxpu=1.5 vminpu=0.93 daily="RU6_DO" 
New "Load.BT_205691_M2" bus1="UC205691.1.2.4" phases=2 conn=delta model=3 kv=0.44 kw = 0.10097062413297483 pf=0.92 status=variable vmaxpu=1.5 vminpu=0.93 daily="RU6_DO"
 
New "Load.BT_223645_M1" bus1="UC223645.1.4" phases=1 conn=delta model=2 kv=0.22 kw = 0.15180031105979963 pf=0.92 status=variable vmaxpu=1.5 vminpu=0.93 daily="RU8_DO" 
New "Load.BT_223645_M2" bus1="UC223645.1.4" phases=1 conn=delta model=3 kv=0.22 kw = 0.15180031105979963 pf=0.92 status=variable vmaxpu=1.5 vminpu=0.93 daily="RU8_DO"
 
New "Load.BT_223633_M1" bus1="UC223633.1.4" phases=1 conn=delta model=2 kv=0.22 kw = 0.10696887903196342 pf=0.92 status=variable vmaxpu=1.5 vminpu=0.93 daily="RU6_DO" 
New "Load.BT_223633_M2" bus1="UC223633.1.4" phases=1 conn=delta model=3 kv=0.22 kw = 0.10696887903196342 pf=0.92 status=variable vmaxpu=1.5 vminpu=0.93 daily="RU6_DO"
 
New "Load.BT_223634_M1" bus1="UC223634.1.4" phases=1 conn=delta model=2 kv=0.22 kw = 0.05632455738598636 pf=0.92 status=variable vmaxpu=1.5 vminpu=0.93 daily="RU7_DO" 
New "Load.BT_223634_M2" bus1="UC223634.1.4" phases=1 conn=delta model=3 kv=0.22 kw = 0.05632455738598636 pf=0.92 status=variable vmaxpu=1.5 vminpu=0.93 daily="RU7_DO"
 
New "Load.BT_223644_M1" bus1="UC223644.1.4" phases=1 conn=delta model=2 kv=0.22 kw = 0.14898522315538879 pf=0.92 status=variable vmaxpu=1.5 vminpu=0.93 daily="RE5_DO" 
New "Load.BT_223644_M2" bus1="UC223644.1.4" phases=1 conn=delta model=3 kv=0.22 kw = 0.14898522315538879 pf=0.92 status=variable vmaxpu=1.5 vminpu=0.93 daily="RE5_DO"
 
New "Load.BT_217026_M1" bus1="UC217026.1.4" phases=1 conn=delta model=2 kv=0.22 kw = 0.12232989807268912 pf=0.92 status=variable vmaxpu=1.5 vminpu=0.93 daily="RU7_DO" 
New "Load.BT_217026_M2" bus1="UC217026.1.4" phases=1 conn=delta model=3 kv=0.22 kw = 0.12232989807268912 pf=0.92 status=variable vmaxpu=1.5 vminpu=0.93 daily="RU7_DO"
 
New "Load.BT_217031_M1" bus1="UC217031.1.4" phases=1 conn=delta model=2 kv=0.22 kw = 0.1497366879983015 pf=0.92 status=variable vmaxpu=1.5 vminpu=0.93 daily="RE2_DO" 
New "Load.BT_217031_M2" bus1="UC217031.1.4" phases=1 conn=delta model=3 kv=0.22 kw = 0.1497366879983015 pf=0.92 status=variable vmaxpu=1.5 vminpu=0.93 daily="RE2_DO"
 
New "Load.BT_218301_M1" bus1="UC218301.1.2.4" phases=2 conn=delta model=2 kv=0.44 kw = 0.17930214222992794 pf=0.92 status=variable vmaxpu=1.5 vminpu=0.93 daily="RU4_DO" 
New "Load.BT_218301_M2" bus1="UC218301.1.2.4" phases=2 conn=delta model=3 kv=0.44 kw = 0.17930214222992794 pf=0.92 status=variable vmaxpu=1.5 vminpu=0.93 daily="RU4_DO"
 
New "Load.BT_223630_M1" bus1="UC223630.2.4" phases=1 conn=delta model=2 kv=0.22 kw = 0.06276754692682589 pf=0.92 status=variable vmaxpu=1.5 vminpu=0.93 daily="RU3_DO" 
New "Load.BT_223630_M2" bus1="UC223630.2.4" phases=1 conn=delta model=3 kv=0.22 kw = 0.06276754692682589 pf=0.92 status=variable vmaxpu=1.5 vminpu=0.93 daily="RU3_DO"
 
New "Load.BT_223631_M1" bus1="UC223631.2.4" phases=1 conn=delta model=2 kv=0.22 kw = 0.1179656796801092 pf=0.92 status=variable vmaxpu=1.5 vminpu=0.93 daily="RU6_DO" 
New "Load.BT_223631_M2" bus1="UC223631.2.4" phases=1 conn=delta model=3 kv=0.22 kw = 0.1179656796801092 pf=0.92 status=variable vmaxpu=1.5 vminpu=0.93 daily="RU6_DO"
 
New "Load.BT_222260_M1" bus1="UC222260.1.4" phases=1 conn=delta model=2 kv=0.22 kw = 0.2948238550672723 pf=0.92 status=variable vmaxpu=1.5 vminpu=0.93 daily="RU7_DO" 
New "Load.BT_222260_M2" bus1="UC222260.1.4" phases=1 conn=delta model=3 kv=0.22 kw = 0.2948238550672723 pf=0.92 status=variable vmaxpu=1.5 vminpu=0.93 daily="RU7_DO"
 
New "Load.BT_222263_M1" bus1="UC222263.1.4" phases=1 conn=delta model=2 kv=0.22 kw = 0.10516253047465937 pf=0.92 status=variable vmaxpu=1.5 vminpu=0.93 daily="RU2_DO" 
New "Load.BT_222263_M2" bus1="UC222263.1.4" phases=1 conn=delta model=3 kv=0.22 kw = 0.10516253047465937 pf=0.92 status=variable vmaxpu=1.5 vminpu=0.93 daily="RU2_DO"
 
New "Load.BT_205680_M1" bus1="UC205680.1.2.3.4" phases=3 conn=delta model=2 kv=0.38 kw = 0.25670988078830986 pf=0.92 status=variable vmaxpu=1.5 vminpu=0.93 daily="RU2_DO" 
New "Load.BT_205680_M2" bus1="UC205680.1.2.3.4" phases=3 conn=delta model=3 kv=0.38 kw = 0.25670988078830986 pf=0.92 status=variable vmaxpu=1.5 vminpu=0.93 daily="RU2_DO"
 
New "Load.BT_205681_M1" bus1="UC205681.1.2.4" phases=2 conn=delta model=2 kv=0.44 kw = 0.6530277532383834 pf=0.92 status=variable vmaxpu=1.5 vminpu=0.93 daily="RU8_DO" 
New "Load.BT_205681_M2" bus1="UC205681.1.2.4" phases=2 conn=delta model=3 kv=0.44 kw = 0.6530277532383834 pf=0.92 status=variable vmaxpu=1.5 vminpu=0.93 daily="RU8_DO"
 
New "Load.BT_205675_M1" bus1="UC205675.2.4" phases=1 conn=delta model=2 kv=0.22 kw = 0.05961211938630853 pf=0.92 status=variable vmaxpu=1.5 vminpu=0.93 daily="RU5_DO" 
New "Load.BT_205675_M2" bus1="UC205675.2.4" phases=1 conn=delta model=3 kv=0.22 kw = 0.05961211938630853 pf=0.92 status=variable vmaxpu=1.5 vminpu=0.93 daily="RU5_DO"
 
New "Load.BT_238952_M1" bus1="UC238952.2.4" phases=1 conn=delta model=2 kv=0.22 kw = 0.0 pf=0.92 status=variable vmaxpu=1.5 vminpu=0.93 daily="RE3_DO" 
New "Load.BT_238952_M2" bus1="UC238952.2.4" phases=1 conn=delta model=3 kv=0.22 kw = 0.0 pf=0.92 status=variable vmaxpu=1.5 vminpu=0.93 daily="RE3_DO"
 
New "Load.BT_205735_M1" bus1="UC205735.3.1.4" phases=2 conn=delta model=2 kv=0.38 kw = 0.8324780180965191 pf=0.92 status=variable vmaxpu=1.5 vminpu=0.93 daily="RU5_DO" 
New "Load.BT_205735_M2" bus1="UC205735.3.1.4" phases=2 conn=delta model=3 kv=0.38 kw = 0.8324780180965191 pf=0.92 status=variable vmaxpu=1.5 vminpu=0.93 daily="RU5_DO"
 
New "Load.BT_238959_M1" bus1="UC238959.1.4" phases=1 conn=delta model=2 kv=0.22 kw = 0.0 pf=0.92 status=variable vmaxpu=1.5 vminpu=0.93 daily="RE2_DO" 
New "Load.BT_238959_M2" bus1="UC238959.1.4" phases=1 conn=delta model=3 kv=0.22 kw = 0.0 pf=0.92 status=variable vmaxpu=1.5 vminpu=0.93 daily="RE2_DO"
 
New "Load.BT_221689_M1" bus1="UC221689.1.4" phases=1 conn=delta model=2 kv=0.22 kw = 0.5838301435015574 pf=0.92 status=variable vmaxpu=1.5 vminpu=0.93 daily="RU6_DO" 
New "Load.BT_221689_M2" bus1="UC221689.1.4" phases=1 conn=delta model=3 kv=0.22 kw = 0.5838301435015574 pf=0.92 status=variable vmaxpu=1.5 vminpu=0.93 daily="RU6_DO"
 
New "Load.BT_238205_M1" bus1="UC238205.2.4" phases=1 conn=delta model=2 kv=0.22 kw = 0.09624569265653736 pf=0.92 status=variable vmaxpu=1.5 vminpu=0.93 daily="RE1_DO" 
New "Load.BT_238205_M2" bus1="UC238205.2.4" phases=1 conn=delta model=3 kv=0.22 kw = 0.09624569265653736 pf=0.92 status=variable vmaxpu=1.5 vminpu=0.93 daily="RE1_DO"
 
New "Load.BT_235961_M1" bus1="UC235961.1.4" phases=1 conn=delta model=2 kv=0.22 kw = 0.02099389214646011 pf=0.92 status=variable vmaxpu=1.5 vminpu=0.93 daily="RU6_DO" 
New "Load.BT_235961_M2" bus1="UC235961.1.4" phases=1 conn=delta model=3 kv=0.22 kw = 0.02099389214646011 pf=0.92 status=variable vmaxpu=1.5 vminpu=0.93 daily="RU6_DO"
 
New "Load.BT_237573_M1" bus1="UC237573.1.4" phases=1 conn=delta model=2 kv=0.22 kw = 0.06453564684025762 pf=0.92 status=variable vmaxpu=1.5 vminpu=0.93 daily="RU3_DO" 
New "Load.BT_237573_M2" bus1="UC237573.1.4" phases=1 conn=delta model=3 kv=0.22 kw = 0.06453564684025762 pf=0.92 status=variable vmaxpu=1.5 vminpu=0.93 daily="RU3_DO"
 
New "Load.BT_237359_M1" bus1="UC237359.2.4" phases=1 conn=delta model=2 kv=0.22 kw = 0.11011968679333017 pf=0.92 status=variable vmaxpu=1.5 vminpu=0.93 daily="RU2_DO" 
New "Load.BT_237359_M2" bus1="UC237359.2.4" phases=1 conn=delta model=3 kv=0.22 kw = 0.11011968679333017 pf=0.92 status=variable vmaxpu=1.5 vminpu=0.93 daily="RU2_DO"
 
New "Load.BT_237167_M1" bus1="UC237167.2.4" phases=1 conn=delta model=2 kv=0.22 kw = 0.17465305153532498 pf=0.92 status=variable vmaxpu=1.5 vminpu=0.93 daily="RU5_DO" 
New "Load.BT_237167_M2" bus1="UC237167.2.4" phases=1 conn=delta model=3 kv=0.22 kw = 0.17465305153532498 pf=0.92 status=variable vmaxpu=1.5 vminpu=0.93 daily="RU5_DO"
 
New "Load.BT_236486_M1" bus1="UC236486.1.4" phases=1 conn=delta model=2 kv=0.22 kw = 0.1679511371716809 pf=0.92 status=variable vmaxpu=1.5 vminpu=0.93 daily="RU6_DO" 
New "Load.BT_236486_M2" bus1="UC236486.1.4" phases=1 conn=delta model=3 kv=0.22 kw = 0.1679511371716809 pf=0.92 status=variable vmaxpu=1.5 vminpu=0.93 daily="RU6_DO"
 
New "Load.BT_2836677_M1" bus1="UC2836677.1.4" phases=1 conn=delta model=2 kv=0.22 kw = 0.09241555708379157 pf=0.92 status=variable vmaxpu=1.5 vminpu=0.93 daily="RU2_DO" 
New "Load.BT_2836677_M2" bus1="UC2836677.1.4" phases=1 conn=delta model=3 kv=0.22 kw = 0.09241555708379157 pf=0.92 status=variable vmaxpu=1.5 vminpu=0.93 daily="RU2_DO"
 
New "Load.BT_2836674_M1" bus1="UC2836674.2.4" phases=1 conn=delta model=2 kv=0.22 kw = 0.02099389214646011 pf=0.92 status=variable vmaxpu=1.5 vminpu=0.93 daily="RU6_DO" 
New "Load.BT_2836674_M2" bus1="UC2836674.2.4" phases=1 conn=delta model=3 kv=0.22 kw = 0.02099389214646011 pf=0.92 status=variable vmaxpu=1.5 vminpu=0.93 daily="RU6_DO"
 
New "Load.BT_235585_M1" bus1="UC235585.1.2.4" phases=2 conn=delta model=2 kv=0.44 kw = 0.9067361988971105 pf=0.92 status=variable vmaxpu=1.5 vminpu=0.93 daily="RU6_DO" 
New "Load.BT_235585_M2" bus1="UC235585.1.2.4" phases=2 conn=delta model=3 kv=0.44 kw = 0.9067361988971105 pf=0.92 status=variable vmaxpu=1.5 vminpu=0.93 daily="RU6_DO"
 
New "Load.BT_2805422_M1" bus1="UC2805422.1.2.4" phases=2 conn=delta model=2 kv=0.44 kw = 0.025316148210675897 pf=0.92 status=variable vmaxpu=1.5 vminpu=0.93 daily="CO3_DO" 
New "Load.BT_2805422_M2" bus1="UC2805422.1.2.4" phases=2 conn=delta model=3 kv=0.44 kw = 0.025316148210675897 pf=0.92 status=variable vmaxpu=1.5 vminpu=0.93 daily="CO3_DO"
 
New "Load.BT_2835970_M1" bus1="UC2835970.1.4" phases=1 conn=delta model=2 kv=0.22 kw = 0.04355215908546499 pf=0.92 status=variable vmaxpu=1.5 vminpu=0.93 daily="RU2_DO" 
New "Load.BT_2835970_M2" bus1="UC2835970.1.4" phases=1 conn=delta model=3 kv=0.22 kw = 0.04355215908546499 pf=0.92 status=variable vmaxpu=1.5 vminpu=0.93 daily="RU2_DO"
 
New "Load.BT_236232_M1" bus1="UC236232.1.2.3.4" phases=3 conn=delta model=2 kv=0.38 kw = 0.8124419102218733 pf=0.92 status=variable vmaxpu=1.5 vminpu=0.93 daily="RU3_DO" 
New "Load.BT_236232_M2" bus1="UC236232.1.2.3.4" phases=3 conn=delta model=3 kv=0.38 kw = 0.8124419102218733 pf=0.92 status=variable vmaxpu=1.5 vminpu=0.93 daily="RU3_DO"
 
New "Load.BT_205652_M1" bus1="UC205652.1.4" phases=1 conn=delta model=2 kv=0.22 kw = 0.2426317841688347 pf=0.92 status=variable vmaxpu=1.5 vminpu=0.93 daily="RU5_DO" 
New "Load.BT_205652_M2" bus1="UC205652.1.4" phases=1 conn=delta model=3 kv=0.22 kw = 0.2426317841688347 pf=0.92 status=variable vmaxpu=1.5 vminpu=0.93 daily="RU5_DO"
 
New "Load.BT_205761_M1" bus1="UC205761.1.2.3.4" phases=3 conn=delta model=2 kv=0.38 kw = 1.1642797442605386 pf=0.92 status=variable vmaxpu=1.5 vminpu=0.93 daily="RU8_DO" 
New "Load.BT_205761_M2" bus1="UC205761.1.2.3.4" phases=3 conn=delta model=3 kv=0.38 kw = 1.1642797442605386 pf=0.92 status=variable vmaxpu=1.5 vminpu=0.93 daily="RU8_DO"
 
New "Load.BT_225860_M1" bus1="UC225860.2.4" phases=1 conn=delta model=2 kv=0.22 kw = 0.18178443775190617 pf=0.92 status=variable vmaxpu=1.5 vminpu=0.93 daily="RE8_DO" 
New "Load.BT_225860_M2" bus1="UC225860.2.4" phases=1 conn=delta model=3 kv=0.22 kw = 0.18178443775190617 pf=0.92 status=variable vmaxpu=1.5 vminpu=0.93 daily="RE8_DO"
 
New "Load.BT_235692_M1" bus1="UC235692.1.4" phases=1 conn=delta model=2 kv=0.22 kw = 0.14328852858202784 pf=0.92 status=variable vmaxpu=1.5 vminpu=0.93 daily="RE7_DO" 
New "Load.BT_235692_M2" bus1="UC235692.1.4" phases=1 conn=delta model=3 kv=0.22 kw = 0.14328852858202784 pf=0.92 status=variable vmaxpu=1.5 vminpu=0.93 daily="RE7_DO"
 
New "Load.BT_235691_M1" bus1="UC235691.2.4" phases=1 conn=delta model=2 kv=0.22 kw = 0.09115360303309185 pf=0.92 status=variable vmaxpu=1.5 vminpu=0.93 daily="RU4_DO" 
...